*HEADING
 Quasi-static Three Point Bending of a Double Chambered Aluminum Extrusion
**
*PREPRINT, ECHO=YES, HISTORY=YES, CONTACT=YES, MODEL=YES
*RESTART, WRITE
**
************************ M O D E L     D E F I N I T I O N ********************** 
**
** --------------------  N O D A L    P O I N T    D A T A  --------------------
**
*Node, Nset=All_Nodes
        43,  -2.500000e+01,   6.020010e+01,   0.000000e+00
       256,  -2.500000e+01,   6.020010e+01,   5.000000e+00
     22310,   2.000000e+02,  -6.020010e+01,   0.000000e+00
     22311,   1.991481e+02,  -5.372960e+01,   0.000000e+00
     22312,   1.966506e+02,  -4.770010e+01,   0.000000e+00
     22313,   1.926777e+02,  -4.252240e+01,   0.000000e+00
     22316,   1.500000e+02,  -6.020010e+01,   0.000000e+00
     22317,   1.508519e+02,  -5.372960e+01,   0.000000e+00
     22318,   2.000000e+02,  -8.520010e+01,   0.000000e+00
     22321,   1.533494e+02,  -4.770010e+01,   0.000000e+00
     22322,   2.000000e+02,  -8.103340e+01,   0.000000e+00
     22325,   1.573223e+02,  -4.252240e+01,   0.000000e+00
     22330,   2.000000e+02,  -7.686680e+01,   0.000000e+00
     22331,   2.000000e+02,  -7.270010e+01,   0.000000e+00
     22332,   2.000000e+02,  -6.853340e+01,   0.000000e+00
     22333,   2.000000e+02,  -6.436680e+01,   0.000000e+00
     22334,   1.500000e+02,  -8.520010e+01,   0.000000e+00
     22335,   1.875000e+02,  -3.854950e+01,   0.000000e+00
     22336,   1.814705e+02,  -3.605200e+01,   0.000000e+00
     22337,   1.750000e+02,  -3.520010e+01,   0.000000e+00
** ... 14953 like lines cut
**
** ------------------------  E L E M E N T     D A T A  ------------------------
**
*Element, Type=S4R, Elset=P1_DoubleChamberExtrusion
  482333,    585665,    585666,    585752,    585753
  482334,    585666,    585667,    585754,    585752
  482335,    585667,    585668,    585755,    585754
  482336,    585668,    585669,    585756,    585755
  482337,    585669,    585670,    585757,    585756
  482338,    585670,    585671,    585758,    585757
  482339,    585671,    585672,    585759,    585758
  482340,    585672,    585673,    585760,    585759
  482341,    585674,    585675,    585761,    585762
  482342,    585675,    585676,    585763,    585761
  482343,    585676,    585677,    585764,    585763
  482344,    585677,    585678,    585765,    585764
  482345,    585678,    585679,    585766,    585765
  482346,    585679,    585680,    585767,    585766
  482347,    585680,    585681,    585768,    585767
  482348,    585681,    585682,    585769,    585768
  482349,    585665,    585683,    585770,    585753
  482350,    585683,    585684,    585771,    585770
  482351,    585684,    585685,    585772,    585771
  482352,    585685,    585686,    585773,    585772
** ... 7780 like lines cut
**
*Shell section, Elset=P1_DoubleChamberExtrusion, Material=AluminumAlloy
  2.5000e+00,     5 
**
*Element, Type=S4R, Elset=P2_Punch
  512611,    594461,    595062,    595063,    594462
  512612,    594942,    595182,    595062,    594461
  512613,    594462,    595063,    595065,    594463
  512614,    594463,    595065,    595071,    594464
  512615,    595638,    595863,    595859,    595634
  512617,    595640,    595865,    595863,    595638
  512618,    595642,    595867,    595865,    595640
  512619,    595644,    595869,    595867,    595642
  512620,    595646,    595871,    595869,    595644
  512621,    595648,    595873,    595871,    595646
  512622,    595650,    595875,    595873,    595648
  512623,    595652,    595877,    595875,    595650
  512624,    595654,    595879,    595877,    595652
  512625,    595656,    595881,    595879,    595654
  512626,    595658,    595883,    595881,    595656
  512627,    595660,    595885,    595883,    595658
  512628,    595662,    595887,    595885,    595660
  512629,    595664,    595889,    595887,    595662
  512630,    595666,    595891,    595889,    595664
  512631,    595668,    595893,    595891,    595666
** ... 1980 like lines cut
**
*Shell section, Elset=P2_Punch, Material=ElasticMat
 1.0000e+00,     3 
**
*Element, Type=S4R, Elset=P3_LeftSupport
  492945,     47749,     47894,     47891,     47746
  492946,     47746,     47891,     47920,     47775
  492947,     47751,     47896,     47894,     47749
  492948,     47753,     47898,     47896,     47751
  492949,     47759,     47904,     47898,     47753
  492950,     47761,     47906,     47904,     47759
  492952,     47767,     47912,     47909,     47764
  492954,     47769,     47914,     47912,     47767
  492955,     47771,     47916,     47914,     47769
  492956,     47773,     47918,     47916,     47771
  492957,     47775,     47920,     47918,     47773
  492961,     47816,     47961,     47962,     47817
  492962,     47847,     47992,     47961,     47816
  492963,     47817,     47962,     47965,     47820
  492964,     47820,     47965,     47967,     47822
  492965,     47822,     47967,     47973,     47828
  492966,     47828,     47973,     47975,     47830
  492967,     47830,     47975,     47977,     47832
  492968,     47832,     47977,     48051,     47906
  492969,     47837,     47982,     47983,     47838
** ... 2380 like lines cut
**
*Shell section, Elset=P3_LeftSupport, Material=ElasticMat
  1.0000e+00,     3 
**
*Element, Type=S4R, Elset=P4_RightSupport
  490134,     23117,     23262,     23259,     23114
  490136,     23119,     23264,     23262,     23117
  490137,     23121,     23266,     23264,     23119
  490138,     23123,     23268,     23266,     23121
  490139,     23125,     23270,     23268,     23123
  490143,     23166,     23311,     23312,     23167
  490144,     23197,     23342,     23311,     23166
  490145,     23167,     23312,     23315,     23170
  490146,     23170,     23315,     23317,     23172
  490147,     23172,     23317,     23323,     23178
  490148,     23178,     23323,     23325,     23180
  490149,     23180,     23325,     23327,     23182
  490150,     23182,     23327,     23401,     23256
  490151,     23187,     23332,     23333,     23188
  490153,     23188,     23333,     23336,     23191
  490155,     23191,     23336,     23338,     23193
  490156,     23193,     23338,     23340,     23195
  490157,     23195,     23340,     23342,     23197
  490163,     23244,     23389,     23386,     23241
  490164,     23241,     23386,     23415,     23270
** ... 2380 like lines cut
**
*Shell section, Elset=P4_RightSupport, Material=ElasticMat
  1.0000e+00,     3 
**
** -----------------------  M A T E R I A L     D A T A  -----------------------
**
** Punch and Support
**
*Material, Name=ElasticMat
*Density
  7.820000e-09
*Elastic
  2.070000e+05,   3.000000e-01
**
** Double chamber Extrusion
**
*Material, Name=AluminumAlloy
*Density
2.70E-09
*Elastic
7.00E+04,	0.33
*plastic,hardening=isotropic,rate=0
3.1100E+02,	0.0000E+00
3.1664E+02,	3.4373E-03
3.2452E+02,	8.5932E-03
3.3520E+02,	1.6327E-02
3.4896E+02,	2.7928E-02
3.6552E+02,	4.5329E-02
3.8370E+02,	7.1431E-02
4.0165E+02,	1.1058E-01
4.1821E+02,	1.6931E-01
4.3474E+02,	2.5741E-01
4.5535E+02,	3.8955E-01
4.8516E+02,	5.8775E-01
5.2975E+02,	8.8507E-01
5.9664E+02,	1.3310E+00
6.9698E+02,	2.0000E+00
6.9698E+02,	2.1000E+00
*DAMAGE INITIATION, CRITERION=DUCTILE
3.3238E+01,	-3.3333E+00,	1.00E-04
3.3238E+01,	-3.3333E-01,	1.00E-04
2.3381E+01,	-2.6667E-01,	1.00E-04
1.6447E+01,	-2.0000E-01,	1.00E-04
1.1570E+01,	-1.3333E-01,	1.00E-04
8.1394E+00,	-6.6667E-02,	1.00E-04
5.7268E+00,	0.0000E+00,	1.00E-04
4.0303E+00,	6.6667E-02,	1.00E-04
2.8377E+00,	1.3333E-01,	1.00E-04
2.0000E+00,	2.0000E-01,	1.00E-04
1.4124E+00,	2.6667E-01,	1.00E-04
1.0013E+00,	3.3333E-01,	1.00E-04
7.1550E-01,	4.0000E-01,	1.00E-04
5.1920E-01,	4.6667E-01,	1.00E-04
3.8780E-01,	5.3333E-01,	1.00E-04
3.0480E-01,	6.0000E-01,	1.00E-04
2.6000E-01,	6.6667E-01,	1.00E-04
2.4758E-01,	7.3010E-01,	1.00E-04
3.0283E-01,	8.5097E-01,	1.00E-04
6.1953E-01,	1.0237E+00,	1.00E-04
** ... 72 like lines cut
*DAMAGE EVOLUTION, TYPE=DISPLACEMENT
0.1
*DAMAGE INITIATION, CRITERION=SHEAR, ks=0.3
2.7610E-01,	-1.0000E+01,	1.00E-04
2.7610E-01,	1.4236E+00,	1.00E-04
2.6130E-01,	1.4625E+00,	1.00E-04
2.5300E-01,	1.5013E+00,	1.00E-04
2.5100E-01,	1.5401E+00,	1.00E-04
2.5510E-01,	1.5789E+00,	1.00E-04
2.6560E-01,	1.6177E+00,	1.00E-04
2.8250E-01,	1.6566E+00,	1.00E-04
3.0650E-01,	1.6954E+00,	1.00E-04
3.3790E-01,	1.7342E+00,	1.00E-04
3.7780E-01,	1.7730E+00,	1.00E-04
4.2690E-01,	1.8118E+00,	1.00E-04
4.8650E-01,	1.8506E+00,	1.00E-04
5.5810E-01,	1.8895E+00,	1.00E-04
6.4350E-01,	1.9283E+00,	1.00E-04
7.4480E-01,	1.9671E+00,	1.00E-04
8.6440E-01,	2.0059E+00,	1.00E-04
1.0053E+00,	2.0447E+00,	1.00E-04
1.1710E+00,	2.0835E+00,	1.00E-04
1.3655E+00,	2.1224E+00,	1.00E-04
** ... 72 like lines cut
*DAMAGE EVOLUTION, TYPE=DISPLACEMENT
0.1,	
*DAMAGE INITIATION, CRITERION=MSFLD, DEFINITION=FLD
2.0370E-01,	-1.0185E-01
1.6590E-01,	-6.9125E-02
1.4548E-01,	-4.8493E-02
1.2454E-01,	-3.1136E-02
1.1234E-01,	-1.8723E-02
1.0013E-01,	-8.3438E-03
8.8206E-02,	0.0000E+00
9.2471E-02,	7.1132E-03
1.0346E-01,	1.5916E-02
1.2030E-01,	2.7762E-02
1.4220E-01,	4.3753E-02
1.6194E-01,	6.2283E-02
1.8590E-01,	8.5800E-02
2.0756E-01,	1.1176E-01
2.2714E-01,	1.3978E-01
2.4487E-01,	1.6952E-01
2.5572E-01,	1.9671E-01
2.6551E-01,	2.2466E-01
2.7437E-01,	2.5327E-01
2.8241E-01,	2.8241E-01
*DAMAGE EVOLUTION, TYPE=DISPLACEMENT
0.1
**
**
*NSET, NSET=P1_DoubleChamberExtrusion, ELSET=P1_DoubleChamberExtrusion
**
** ---------------------  R I G I D    B O D Y    D A T A  ---------------------
**
** Punch
**
*Elset, Elset=RBody_Punch
P2_Punch,
**
*Nset, Nset=RBody_Punch_RefNode
 594452,
**
*Rigid body, Ref node=RBody_Punch_RefNode, Position=CENTER OF MASS, Elset=RBody_Punch
**
** Left Support
**
*Elset, Elset=RBody_LeftSupport
P3_LeftSupport,
**
*Nset, Nset=RBody_LeftSupport_RefNode
 594453,
**
*Rigid body, Ref node=RBody_LeftSupport_RefNode, Position=CENTER OF MASS, Elset=RBody_LeftSupport
**
** Right Support
**
*Elset, Elset=RBody_RightSupport
P4_RightSupport,
**
*Nset, Nset=RBody_RightSupport_RefNode
 594454,
**
*Rigid body, Ref node=RBody_RightSupport_RefNode, Position=CENTER OF MASS, Elset=RBody_RightSupport
**
** ----------------  C O N T A C T    S U R F A C E    D A T A  ----------------
**
** Contact Surfaces - Punch/DoubleChamberExtrusion
**
*Surface, Name=Contact_1_Main, Type=ELEMENT
 P2_Punch,
**
*Surface, Name=Contact_1_Secondary, Type=NODE
 P1_DoubleChamberExtrusion,
**
** Contact Surfaces - LeftSupport/DoubleChamberExtrusion
**
*Surface, Name=Contact_2_Main, Type=ELEMENT
 P3_LeftSupport,
**
*Surface, Name=Contact_2_Secondary, Type=ELEMENT
 P1_DoubleChamberExtrusion,
**
*Surface Interaction, Name=Contact_2_Prop
*Friction
 5.000000e-02,
**
** Contact Surfaces - RightSupport/DoubleChamberExtrusion
**
*Surface, Name=Contact_3_Main, Type=ELEMENT
 P4_RightSupport,
**
*Surface, Name=Contact_3_Secondary, Type=ELEMENT
 P1_DoubleChamberExtrusion,
**
*Surface Interaction, Name=Contact_3_Prop
*Friction
 5.000000e-02,
**
** Self Contact
**
*Surface, Name=Contact_4_Self, Type=ELEMENT
 P1_DoubleChamberExtrusion,
**
*Surface Interaction, Name=Contact_4_Prop
*Friction
 1.500000e-01,
**
** -------------  B O U N D A R Y    C O N D I T I O N    D A T A  -------------
**
** Displacement Boundary Condition (Punch)
**
*Boundary
 RBody_Punch_RefNode, 1, 1
 RBody_Punch_RefNode, 3, 3
 RBody_Punch_RefNode, 4, 4
 RBody_Punch_RefNode, 5, 5
 RBody_Punch_RefNode, 6, 6
*Nset, nset=QA_TEST
RBody_Punch_RefNode,
**
** Displacement Boundary Condition (Left Support)
**
*Boundary
 RBody_LeftSupport_RefNode, 1, 6
**
** Displacement Boundary Condition (Right Support)
**
*Boundary
 RBody_RightSupport_RefNode, 1, 6
**
**
********************* H I S T O R Y     D E F I N I T I O N *********************
**
*Step, NLGEOM=YES
**
*Dynamic, Explicit, Element by element
 , 7.200000e-02
**
*DIAGNOSTICS, CONTACT INITIAL OVERCLOSURE=DETAIL
**
** ------------  C O N T A C T    I N T E R A C T I O N    D A T A  ------------
**
*CONTACT PAIR, INTERACTION=CON01, CPSET=C_P_S, MECHANICAL CONSTRAINT=PENALTY
 Contact_1_Secondary, Contact_1_Main
*SURFACE INTERACTION, NAME=CON01
*FRICTION
 0.05,
**
*Contact
**
*Contact inclusions
 Contact_2_Secondary, Contact_2_Main
 Contact_3_Secondary, Contact_3_Main
 Contact_4_Self, Contact_4_Self
**
*Contact property assignment
 Contact_2_Secondary, Contact_2_Main, Contact_2_Prop
 Contact_3_Secondary, Contact_3_Main, Contact_3_Prop
 Contact_4_Self, Contact_4_Self, Contact_4_Prop
**
*Surface property assignment, Property=THICKNESS
 Contact_2_Secondary,    1.250000e+00, 1.
 Contact_2_Main,   1.250000e+00, 1.
 Contact_3_Secondary,    1.250000e+00, 1.
 Contact_3_Main,   1.250000e+00, 1.
 Contact_4_Self,     2.500000e+00, 1.
**
*Contact formulation, Type=PURE MAIN-SECONDARY
 Contact_2_Secondary, Contact_2_Main, SECONDARY
 Contact_3_Secondary, Contact_3_Main, SECONDARY
**
**                                                                               
******************************************************************************
*AMPLITUDE, NAME=velocity
 .0, 0.0, 1.25000e-04, 79.972664, 2.50000e-04, 159.822006, 3.75000e-04, 239.424896,
 5.00e-04, 318.6586, 6.25e-04, 397.401062, 7.50e-04, 475.53067, 8.75e-04, 552.927002,
 0.001, 629.470764, 0.001125, 705.044128, 0.00125, 779.530212, 0.001375, 852.814331,
 0.0015, 924.783447, 0.001625, 995.326538, 0.00175, 1064.335083, 0.001875, 1131.702393,
 0.002, 1197.324707, 0.002125, 1261.100952, 0.00225, 1322.932495, 0.002375, 1382.724121,
 0.0025, 1440.383911, 0.002625, 1495.82251, 0.00275, 1548.954834, 0.002875, 1599.698975,
 0.003, 1647.976074, 0.003125, 1693.712402, 0.00325, 1736.836914, 0.003375, 1777.283691,
 0.0035, 1814.989624, 0.003625, 1849.897095, 0.00375, 1881.952148, 0.003875, 1911.105469,
 0.004, 1937.312134, 0.004125, 1960.531372, 0.00425, 1980.727539, 0.004375, 1997.869873,
 0.0045, 2011.931519, 0.004625, 2022.890747, 0.00475, 2030.731201, 0.004875, 2035.439941,
 0.005, 2037.010254, 1.0, 2037.010254
*BOUNDARY, TYPE=VELOCITY, AMPLITUDE=velocity
 RBody_Punch_RefNode, 2, 2, -1
** ----------------------  O U T P U T     R E Q U E S T  ----------------------
**
** Default output requests
**
*Output, Field, TIME INTERVAL=0.001 
*Node output
 U,
*Element output
 S, E, STATUS, DMICRT
*Output, Field, NUMBER INTERVAL = 4
*Node output, nset=QA_TEST
 U,
**
*OUTPUT, HISTORY, TIME INTERVAL=1.0e-04
*NODE OUTPUT,NSET=RBody_Punch_RefNode
 U2, RF2 
*Energy output
 ALLKE, ALLIE, ALLSE, ALLPD, ALLVD, ALLAE, ALLWK, ETOTAL
**
*End step
